# File generated by Flopy version 3.3.3 on 05/07/2021 at 18:06:09.
BEGIN options
  SAVE_FLOWS
END options

BEGIN griddata
  icelltype
    CONSTANT  1
  k
    CONSTANT       1.00000000
END griddata

