# File generated by Flopy version 3.3.3 on 05/07/2021 at 18:06:08.
BEGIN options
  COMPLEXITY  simple
END options

