# File generated by Flopy version 3.3.3 on 05/07/2021 at 18:06:08.
BEGIN options
END options

BEGIN packages
  DIS6  mf6_test_1.dis  dis
  IC6  mf6_test_1.ic  ic
  NPF6  mf6_test_1.npf  npf
  CHD6  mf6_test_1.chd  chd_0
  OC6  mf6_test_1.oc  oc
END packages

