# File generated by Flopy version 3.3.3 on 05/07/2021 at 18:06:09.
BEGIN options
  BUDGET  FILEOUT  mf6_test_1.cbb
  HEAD  FILEOUT  mf6_test_1.hds
END options

BEGIN period  1
  SAVE  HEAD  ALL
  SAVE  BUDGET  ALL
  PRINT  HEAD  LAST
END period  1

