# File generated by Flopy version 3.3.3 on 05/07/2021 at 18:06:08.
BEGIN options
END options

BEGIN timing
  TDIS6  mf6_test_1.tdis
END timing

BEGIN models
  gwf6  mf6_test_1.nam  mf6_test_1
END models

BEGIN exchanges
END exchanges

BEGIN solutiongroup  1
  ims6  mf6_test_1.ims  mf6_test_1
END solutiongroup  1

